#!/bin/sh
MODPATH=$1
KERNPATH=$1
if [ "$1" == "" ]; then
	echo "uSD Modules Destination is missing, please provide complete path"
	exit
fi
if [ "$2" == "" ]; then
	echo "uSD Kernel Destination is missing, please provide complete path"
	exit
fi
. /Devel/NOVAsom_SDK/Utils/SourceMe32_5
export INSTALL_MOD_PATH=$MODPATH
export INSTALL_KERN_PATH=$KERNPATH
export KERNEL_SRC=`pwd`
sudo rm -rf $USDPATH/lib/modules/*
sudo make modules_install
sudo cp arch/arm/boot/zImage $KERNPATH/.
cd kernel-module-imx-gpu-viv
make -j32
sudo make modules_install
echo "Syncing ... "
sync

